LAMMPS (29 Aug 2024 - Development - patch_29Aug2024-269-g805c2ae131)
# PART A - ENERGY MINIMIZATION

# 1) Initialization
units real
atom_style full

bond_style     harmonic
angle_style    harmonic
dihedral_style opls
improper_style cvff

pair_style lj/cut/coul/long 10

kspace_style pppm 1e-6

read_data OCCO_10k_STABLE.data
Reading data file ...
  orthogonal box = (-5 -5 -5) to (5 5 5)
  reading atoms ...
  10 atoms
  scanning bonds ...
  scanning angles ...
  scanning dihedrals ...
  scanning impropers ...
  orthogonal box = (-5 -5 -5) to (5 5 5)
  reading bonds ...
  9 bonds
  reading angles ...
  14 angles
  reading dihedrals ...
  15 dihedrals
  reading impropers ...
  4 impropers
Finding 1-2 1-3 1-4 neighbors ...
     4 = max # of 1-2 neighbors
     4 = max # of 1-3 neighbors
     7 = max # of 1-4 neighbors
     9 = max # of special neighbors

replicate 2 1 1 bbox
Replication is creating a 2x1x1 = 2 times larger system...
  orthogonal box = (-5 -5 -5) to (15 5 5)
  average # of replicas added to proc = 2.00 out of 2 (100.00%)
  20 atoms
  18 bonds
  28 angles
  30 dihedrals
  8 impropers
Finding 1-2 1-3 1-4 neighbors ...
     4 = max # of 1-2 neighbors
     4 = max # of 1-3 neighbors
     7 = max # of 1-4 neighbors
     9 = max # of special neighbors
  replicate CPU = 0.001 seconds

timestep 0.1

velocity all create 10 42

dump atom all atom 100 OCCO_10k_out.atom

fix 1 all nve

fix recenter all recenter INIT INIT INIT

compute msd all msd
fix msd all ave/time 2000 1 2000 c_msd file msd.msd mode vector

thermo_style custom step temp press etotal density evdwl ecoul epair eangle edihed eimp emol elong etail enthalpy ecouple econserve ebond
thermo 100

run 100000

CITE-CITE-CITE-CITE-CITE-CITE-CITE-CITE-CITE-CITE-CITE-CITE-CITE

Your simulation uses code contributions which should be cited:

- Type Label Framework: https://doi.org/10.1021/acs.jpcb.3c08419

@Article{Gissinger24,
 author = {Jacob R. Gissinger, Ilia Nikiforov, Yaser Afshar, Brendon Waters, Moon-ki Choi, Daniel S. Karls, Alexander Stukowski, Wonpil Im, Hendrik Heinz, Axel Kohlmeyer, and Ellad B. Tadmor},
 title = {Type Label Framework for Bonded Force Fields in LAMMPS},
 journal = {J. Phys. Chem. B},
 year =    2024,
 volume =  128,
 number =  13,
 pages =   {3282â€“-3297}
}

CITE-CITE-CITE-CITE-CITE-CITE-CITE-CITE-CITE-CITE-CITE-CITE-CITE

PPPM initialization ...
  G vector (1/distance) = 0.30925871
  grid = 16 10 10
  stencil order = 5
  estimated absolute RMS force accuracy = 0.00022876842
  estimated relative force accuracy = 6.889293e-07
  3d grid and FFT values/proc = 6647 1600
Generated 45 of 45 mixed pair_coeff terms from geometric mixing rule
Step          Temp          Press          TotEng        Density         E_vdwl         E_coul         E_pair        E_angle        E_dihed        E_impro         E_mol          E_long         E_tail        Enthalpy       Ecouple       Econserve        E_bond
0   10            -3795.0758     -13.783042      0.10306633    -0.065532932    102.88506     -22.502183      0.62316523     1.0100172      0              8.1527867     -125.32171      0             -124.47762      0             -13.783042      6.5196043
Averages over the last 501 of 1001 rows, steps 50000 to 100000:
Temp Press TotEng Density E_vdwl E_coul E_pair E_angle E_dihed E_impro E_mol E_long E_tail Enthalpy Ecouple Econserve E_bond
54919.9 -6964.76 5453.56 0.103066 3.23957 90.6131 -28.5647 160.053 5.38659 0 2371.72 -122.417 0 5250.41 0 5453.56 2206.28
Loop time of 10.4094 on 1 procs for 100000 steps with 20 atoms

write_data OCCO_10k_out.data
System init for write_data ...
PPPM initialization ...
  G vector (1/distance) = 0.30925871
  grid = 16 10 10
  stencil order = 5
  estimated absolute RMS force accuracy = 0.00022876842
  estimated relative force accuracy = 6.889293e-07
  3d grid and FFT values/proc = 6647 1600
Generated 45 of 45 mixed pair_coeff terms from geometric mixing rule
